137
POPI.txyz
C        -93.18200       91.93700      -39.37300
H        -93.92300       91.11200      -39.31100
O        -92.03900       91.23500      -39.86300
H        -92.17100       90.30400      -39.66900
C        -93.64100       93.08800      -40.22400
H        -94.51200       93.57300      -39.73400
O        -94.07700       92.69300      -41.51200
H        -95.02800       92.73500      -41.64000
C        -92.54000       94.19700      -40.29200
H        -91.66900       93.79500      -40.85300
O        -92.98400       95.37000      -41.00100
H        -93.94000       95.31700      -40.94200
C        -92.02000       94.62400      -38.87800
H        -92.75300       95.36000      -38.48400
O        -90.83400       95.30200      -39.17800
H        -90.69700       96.02400      -38.56100
C        -91.90700       93.47800      -37.87900
H        -90.94300       92.94000      -38.00900
O        -91.89700       93.96000      -36.56000
H        -92.22700       93.32200      -35.92300
C        -92.99100       92.45500      -37.95200
H        -93.93500       92.86900      -37.53500
P        -93.40800       90.81700      -35.75300
O        -92.64600       91.33700      -37.14100
O        -94.88100       90.65300      -36.02500
O        -92.67700       89.67500      -35.23700
O        -93.08800       91.99100      -34.86400
C        -93.85900       92.13300      -33.69500
H        -94.35400       91.28000      -33.18500
H        -94.66100       92.84000      -33.99500
C        -92.96700       92.71200      -32.52200
H        -93.61400       93.01200      -31.67000
O        -92.18300       93.85500      -32.97500
C        -92.73700       95.06400      -33.25500
O        -93.89200       95.29200      -33.06600
C        -91.64300       96.11400      -33.49800
H        -92.09200       97.12500      -33.60700
H        -91.13800       95.85400      -34.45300
C        -92.01800       91.55000      -32.09600
H        -92.53600       90.57600      -31.95800
H        -91.39700       91.39200      -33.00400
O        -91.31300       91.85800      -30.89200
C        -90.30700       91.09100      -30.58000
O        -89.98000       90.07000      -31.16100
C        -89.63100       91.51500      -29.22100
H        -90.34700       92.20600      -28.72700
H        -88.69600       92.07500      -29.43400
C        -90.58700       96.02700      -32.36700
H        -89.73200       96.54600      -32.85000
H        -90.17100       95.03400      -32.09200
C        -90.81500       96.80800      -31.09400
H        -91.61400       96.26100      -30.54900
H        -91.26200       97.77600      -31.40600
C        -89.74400       96.95500      -29.94500
H        -89.83400       97.95800      -29.47600
H        -88.75100       96.89400      -30.44100
C        -89.91600       95.83900      -28.94000
H        -89.93100       94.92000      -29.56600
H        -90.92000       95.87500      -28.46600
C        -88.88200       95.63100      -27.85200
H        -87.88300       95.49300      -28.31800
H        -89.07900       94.69900      -27.27900
C        -88.97900       96.74600      -26.83300
H        -90.02300       96.74900      -26.45100
H        -88.81800       97.71000      -27.36000
C        -88.15700       96.65000      -25.59200
H        -88.10700       95.68800      -25.06100
C        -87.18800       97.58200      -25.36100
H        -86.59400       97.48300      -24.44100
C        -86.80000       98.93900      -26.04000
H        -86.23900       99.62200      -25.36700
H        -87.79200       99.36600      -26.29700
C        -86.07200       98.79400      -27.37600
H        -85.83800       99.78200      -27.82600
H        -86.75800       98.21500      -28.03200
C        -84.65400       98.15900      -27.33600
H        -84.82800       97.13200      -26.94900
H        -84.17400       98.75000      -26.52700
C        -84.04400       98.06500      -28.75300
H        -83.07700       97.52000      -28.79800
H        -83.72300       99.09600      -29.01700
C        -85.03700       97.67000      -29.77900
H        -85.68200       98.44000      -30.25400
H        -85.64700       96.87700      -29.29700
C        -84.40900       96.98900      -30.95600
H        -83.75000       96.27300      -30.41900
H        -83.85000       97.61000      -31.68800
C        -85.45500       96.21800      -31.74500
H        -86.48800       96.62300      -31.68800
H        -85.63200       95.27800      -31.18000
C        -84.93800       95.80400      -33.13600
H        -84.45500       96.61600      -33.72100
H        -84.06400       95.13200      -33.00200
H        -85.75100       95.31600      -33.71400
C        -89.30100       90.37400      -28.24700
H        -88.39000       89.78700      -28.49000
H        -90.16400       89.69300      -28.40200
C        -89.30800       90.83100      -26.81900
H        -88.51000       91.55400      -26.54600
H        -89.09600       89.92800      -26.20700
C        -90.61600       91.50400      -26.34800
H        -91.46000       90.79800      -26.49800
H        -90.88300       92.44900      -26.86800
C        -90.47200       91.94000      -24.87300
H        -89.56700       92.57400      -24.75200
H        -90.31900       90.98100      -24.33400
C        -91.71000       92.74700      -24.28800
H        -92.65700       92.16700      -24.30100
H        -91.78300       93.59200      -25.00600
C        -91.50800       93.22700      -22.88000
H        -92.04400       94.18700      -22.72200
H        -90.41500       93.40100      -22.78300
C        -92.06300       92.18900      -21.89600
H        -91.50300       91.23000      -21.90200
H        -93.12000       91.98400      -22.17100
C        -92.07300       92.79400      -20.38200
H        -91.01300       92.96400      -20.09500
H        -92.44400       91.89000      -19.85200
C        -92.92200       94.05900      -20.16400
H        -93.91300       93.74500      -20.55500
H        -92.50700       94.83100      -20.84700
C        -92.91100       94.48600      -18.70200
H        -91.88100       94.28000      -18.33800
H        -93.46800       93.88800      -17.94900
C        -93.14300       95.96100      -18.49100
H        -94.22600       96.20600      -18.53400
H        -92.61100       96.59300      -19.23400
C        -92.81900       96.49700      -17.06300
H        -91.77700       96.18500      -16.83800
H        -93.41400       95.86300      -16.37200
C        -92.89000       98.00600      -16.90300
H        -93.91500       98.43000      -16.95800
H        -92.27800       98.31600      -17.77700
C        -92.29800       98.46300      -15.58700
H        -91.21700       98.21200      -15.52900
H        -92.49800       99.55600      -15.59200
H        -92.83800       97.99000      -14.74000
