127
POPS.txyz
N        -91.83200      -95.70500      -40.62900
H        -90.91500      -96.13300      -40.39200
H        -92.42900      -95.62600      -39.78000
H        -92.21200      -96.37600      -41.32600
C        -91.76200      -94.41300      -41.38700
H        -92.77100      -94.24800      -41.73800
C        -90.82800      -94.45000      -42.61100
O        -90.29900      -95.57300      -42.93700
O        -90.65100      -93.37500      -43.26000
C        -91.29100      -93.26400      -40.46700
H        -91.40800      -92.33400      -41.06400
H        -90.23200      -93.27200      -40.13000
P        -91.91900      -92.08700      -38.33600
O        -92.14500      -93.24300      -39.34500
O        -90.57200      -91.51700      -38.53900
O        -93.02400      -91.14600      -38.68500
O        -91.98400      -92.74900      -36.86900
C        -90.79600      -93.22200      -36.23900
H        -89.91700      -93.43800      -36.88400
H        -90.88900      -94.19700      -35.71500
C        -90.30700      -92.26000      -35.16900
H        -90.14300      -91.26900      -35.64300
O        -88.96300      -92.70000      -34.82000
C        -88.13100      -91.74200      -34.40700
O        -88.34900      -90.56500      -34.40700
C        -86.76400      -92.37600      -34.29000
H        -85.97400      -91.89300      -34.90500
H        -86.77600      -93.42300      -34.66100
C        -91.30200      -92.14900      -33.92100
H        -91.50300      -93.16800      -33.52800
H        -92.29100      -91.80200      -34.29000
O        -90.90400      -91.28500      -32.89300
C        -91.11200      -90.00900      -33.15300
O        -91.74300      -89.55800      -34.12500
C        -90.43100      -89.19700      -32.06700
H        -89.99100      -88.32500      -32.59500
H        -89.62100      -89.84700      -31.67200
C        -86.29600      -92.29100      -32.80200
H        -85.35400      -92.83600      -32.58000
H        -87.05700      -92.68800      -32.09600
C        -85.91400      -90.82500      -32.41500
H        -86.75200      -90.09500      -32.41200
H        -85.19900      -90.39100      -33.14500
C        -85.27000      -90.84900      -31.02900
H        -84.24700      -91.28100      -31.06400
H        -85.88200      -91.39700      -30.28100
C        -84.83200      -89.42900      -30.54200
H        -85.54700      -88.77100      -31.08100
H        -83.81100      -89.14000      -30.87100
C        -84.86000      -89.23500      -29.06500
H        -84.35900      -88.25500      -28.91300
H        -84.35700      -90.06400      -28.52400
C        -86.35500      -89.07900      -28.63700
H        -86.34300      -89.29500      -27.54800
H        -87.02300      -89.87900      -29.02200
C        -86.93600      -87.65300      -28.85600
H        -87.45300      -87.53800      -29.82000
C        -86.75000      -86.65600      -28.02200
H        -87.38800      -85.76100      -28.07100
C        -85.87700      -86.65900      -26.72800
H        -85.04000      -85.93400      -26.82100
H        -85.45800      -87.68700      -26.68200
C        -86.50300      -86.35300      -25.36600
H        -85.85600      -86.78100      -24.57000
H        -87.45000      -86.89600      -25.16000
C        -86.87700      -84.90900      -25.14000
H        -87.71800      -84.44300      -25.69700
H        -86.04100      -84.27100      -25.49800
C        -87.11000      -84.49700      -23.67500
H        -86.42300      -85.09800      -23.04200
H        -88.11500      -84.82000      -23.32800
C        -87.10900      -82.98500      -23.38300
H        -88.05900      -82.57500      -23.78600
H        -86.31300      -82.58500      -24.04600
C        -86.83300      -82.65100      -21.88100
H        -86.51300      -81.60900      -21.66700
H        -85.91400      -83.19600      -21.57700
C        -88.00900      -83.08000      -20.90700
H        -87.73000      -82.61700      -19.93700
H        -87.96500      -84.19000      -20.94400
C        -89.36900      -82.56000      -21.30900
H        -89.28900      -81.45700      -21.40600
H        -90.23300      -82.76200      -20.64000
H        -89.71900      -82.88700      -22.31200
C        -91.47100      -88.76000      -31.01500
H        -92.30600      -88.22200      -31.51400
H        -91.09600      -88.08000      -30.22000
C        -92.18400      -89.86600      -30.25800
H        -92.71900      -90.51800      -30.98100
H        -92.94600      -89.42000      -29.58300
C        -91.31200      -90.80600      -29.40300
H        -90.78000      -90.11200      -28.71800
H        -90.61400      -91.30800      -30.10700
C        -92.02700      -91.94500      -28.67300
H        -92.52300      -92.61200      -29.41100
H        -92.90100      -91.53800      -28.12300
C        -91.14700      -92.67000      -27.67900
H        -90.74800      -92.06900      -26.83400
H        -90.23900      -93.04400      -28.19900
C        -91.76700      -93.93800      -26.98600
H        -91.98500      -94.67500      -27.78800
H        -92.66400      -93.59100      -26.43000
C        -90.79800      -94.62700      -25.97900
H        -90.22000      -93.81400      -25.48900
H        -89.93000      -95.07900      -26.50400
C        -91.27700      -95.71200      -25.03100
H        -90.50900      -96.33900      -24.52900
H        -91.87000      -96.47400      -25.58000
C        -92.20600      -95.29700      -23.83500
H        -92.34600      -96.13600      -23.12000
H        -93.21000      -94.97000      -24.18000
C        -91.68000      -94.04200      -23.06100
H        -91.54500      -93.30000      -23.87700
H        -90.68400      -94.38700      -22.71200
C        -92.66900      -93.68700      -21.91700
H        -93.71100      -93.61400      -22.29600
H        -92.31200      -92.65000      -21.74200
C        -92.62000      -94.62800      -20.62600
H        -91.55100      -94.89000      -20.47300
H        -93.05100      -95.59800      -20.95500
C        -93.42100      -94.27600      -19.44300
H        -94.48600      -94.45400      -19.70700
H        -93.22100      -93.21500      -19.18100
C        -93.03200      -95.18500      -18.29100
H        -91.93800      -95.28200      -18.12300
H        -93.37300      -96.21600      -18.52200
H        -93.45700      -94.83600      -17.32600
